Version 4
SHEET 1 880 680
WIRE 208 80 176 80
WIRE 240 96 64 96
WIRE 176 128 176 80
WIRE 240 128 240 96
WIRE 240 128 176 128
WIRE 64 208 64 96
WIRE 208 208 208 80
WIRE 208 208 64 208
WIRE 240 208 240 128
WIRE 0 0 0 0
FLAG 240 208 0
